tests/fixtures/psse_vecgrp.raw
@!IC,SBASE,REV,XFRRAT,NXFRAT,BASFRQ
0,   100.00, 33, 0, 1, 60.00     / hand-written OpenEMT importer VECGRP case (not a vendor file)
OPENEMT IMPORTER VECTOR-GROUP COVERAGE
FOUR RADIAL 230/13.8 KV UNITS OFF ONE SLACK: SAME LEAKAGE, DIFFERENT VECGRP/ANG1
0 / END OF SYSTEM-WIDE DATA, BEGIN BUS DATA
     1,'VG-SLACK    ', 230.0000,3,   1,   1,   1,1.00000,   0.0000
     2,'VG-YND1     ',  13.8000,1,   1,   1,   1,0.99280,  30.0000
     3,'VG-DYN11    ',  13.8000,1,   1,   1,   1,0.99280, -30.0000
     4,'VG-BLANK    ',  13.8000,1,   1,   1,   1,0.99280,  30.0000
     5,'VG-NOANG    ',  13.8000,1,   1,   1,   1,0.99280,   0.0000
0 / END OF BUS DATA, BEGIN LOAD DATA
     2,'1 ',   1,   1,   1,     5.000,    12.000,     0.000,     0.000,     0.000,     0.000,   1,    1,  0
     3,'1 ',   1,   1,   1,     5.000,    12.000,     0.000,     0.000,     0.000,     0.000,   1,    1,  0
     4,'1 ',   1,   1,   1,     5.000,    12.000,     0.000,     0.000,     0.000,     0.000,   1,    1,  0
     5,'1 ',   1,   1,   1,     5.000,    12.000,     0.000,     0.000,     0.000,     0.000,   1,    1,  0
0 / END OF LOAD DATA, BEGIN FIXED SHUNT DATA
0 / END OF FIXED SHUNT DATA, BEGIN GENERATOR DATA
     1,'1 ',    20.000,    50.000,   300.000,  -300.000,1.00000,     0,   400.000, 0.00000E+0, 2.00000E-1, 0.00000E+0, 0.00000E+0,1.00000,1, 100.0,   360.000,     0.000
0 / END OF GENERATOR DATA, BEGIN BRANCH DATA
0 / END OF BRANCH DATA, BEGIN TRANSFORMER DATA
     1,     2,     0,'1 ', 1, 1, 1, 0.00000E+0, 0.00000E+0,2,'DELTA ON WINDING 2  ',1,   1,1.0000,   0,1.0000,   0,1.0000,   0,1.0000,'YNd1        '
 6.00000E-3, 6.00000E-2,   100.00
1.00000, 230.000, -30.000,   150.00,   165.00,   180.00,    0.00,    0.00,    0.00,    0.00,    0.00,    0.00,    0.00,    0.00,    0.00, 0,      0, 1.10000, 0.90000, 1.10000, 0.90000,  33, 0, 0.00000, 0.00000,  0.000
1.00000,  13.800
     1,     3,     0,'1 ', 1, 1, 1, 0.00000E+0, 0.00000E+0,2,'DELTA ON WINDING 1  ',1,   1,1.0000,   0,1.0000,   0,1.0000,   0,1.0000,'Dyn11       '
 6.00000E-3, 6.00000E-2,   100.00
1.00000, 230.000,  30.000,   150.00,   165.00,   180.00,    0.00,    0.00,    0.00,    0.00,    0.00,    0.00,    0.00,    0.00,    0.00, 0,      0, 1.10000, 0.90000, 1.10000, 0.90000,  33, 0, 0.00000, 0.00000,  0.000
1.00000,  13.800
     1,     4,     0,'1 ', 1, 1, 1, 0.00000E+0, 0.00000E+0,2,'NO VECGRP LABEL     ',1,   1,1.0000,   0,1.0000,   0,1.0000,   0,1.0000,'            '
 6.00000E-3, 6.00000E-2,   100.00
1.00000, 230.000, -30.000,   150.00,   165.00,   180.00,    0.00,    0.00,    0.00,    0.00,    0.00,    0.00,    0.00,    0.00,    0.00, 0,      0, 1.10000, 0.90000, 1.10000, 0.90000,  33, 0, 0.00000, 0.00000,  0.000
1.00000,  13.800
     1,     5,     0,'1 ', 1, 1, 1, 0.00000E+0, 0.00000E+0,2,'DELTA LABEL BUT ANG0',1,   1,1.0000,   0,1.0000,   0,1.0000,   0,1.0000,'YNd1        '
 6.00000E-3, 6.00000E-2,   100.00
1.00000, 230.000,   0.000,   150.00,   165.00,   180.00,    0.00,    0.00,    0.00,    0.00,    0.00,    0.00,    0.00,    0.00,    0.00, 0,      0, 1.10000, 0.90000, 1.10000, 0.90000,  33, 0, 0.00000, 0.00000,  0.000
1.00000,  13.800
0 / END OF TRANSFORMER DATA, BEGIN AREA DATA
0 / END OF AREA DATA, BEGIN ZONE DATA
0 / END OF ZONE DATA, BEGIN OWNER DATA
0 / END OF OWNER DATA, BEGIN Q RECORD
Q
